@<TRIPOS>MOLECULE
RES
216 0 1 0 1
SMALL
NO_CHARGES
@<TRIPOS>CRYSIN
   19.9574    20.0526    20.0319    90.0000    90.0000    90.0000 1 1
@<TRIPOS>ATOM
       1 LJ         -49.1961   -50.1567   -50.2814 LJ            1 RES     
       2 LJ         -49.4298   -49.6156   -49.4736 LJ            1 RES     
       3 LJ         -49.8575   -50.8542   -50.0056 LJ            1 RES     
       4 LJ         -50.0912   -50.3132   -49.1977 LJ            1 RES     
       5 LJ         -49.9088   -49.6868   -50.8023 LJ            1 RES     
       6 LJ         -50.1425   -49.1458   -49.9944 LJ            1 RES     
       7 LJ         -50.5702   -50.3844   -50.5264 LJ            1 RES     
       8 LJ         -50.8039   -49.8433   -49.7186 LJ            1 RES     
       9 LJ         -49.9797   -50.0740   -44.1960 LJ            1 RES     
      10 LJ         -50.2715   -50.7900   -43.5618 LJ            1 RES     
      11 LJ         -50.5186   -49.4031   -43.6866 LJ            1 RES     
      12 LJ         -50.8105   -50.1191   -43.0524 LJ            1 RES     
      13 LJ         -49.1895   -49.8809   -43.6143 LJ            1 RES     
      14 LJ         -49.4814   -50.5969   -42.9801 LJ            1 RES     
      15 LJ         -49.7285   -49.2100   -43.1049 LJ            1 RES     
      16 LJ         -50.0203   -49.9260   -42.4707 LJ            1 RES     
      17 LJ         -49.2402   -50.3918   -36.5281 LJ            1 RES     
      18 LJ         -49.5664   -49.5781   -36.0470 LJ            1 RES     
      19 LJ         -50.1381   -50.8176   -36.4167 LJ            1 RES     
      20 LJ         -50.4643   -50.0039   -35.9357 LJ            1 RES     
      21 LJ         -49.5357   -49.9961   -37.3977 LJ            1 RES     
      22 LJ         -49.8619   -49.1824   -36.9166 LJ            1 RES     
      23 LJ         -50.4336   -50.4219   -37.2863 LJ            1 RES     
      24 LJ         -50.7598   -49.6082   -36.8052 LJ            1 RES     
      25 LJ         -49.9669   -43.6944   -49.2135 LJ            1 RES     
      26 LJ         -49.4685   -42.8739   -49.4936 LJ            1 RES     
      27 LJ         -50.7933   -43.3423   -49.6528 LJ            1 RES     
      28 LJ         -50.2949   -42.5218   -49.9329 LJ            1 RES     
      29 LJ         -49.7051   -44.1448   -50.0671 LJ            1 RES     
      30 LJ         -49.2067   -43.3244   -50.3472 LJ            1 RES     
      31 LJ         -50.5315   -43.7927   -50.5064 LJ            1 RES     
      32 LJ         -50.0331   -42.9723   -50.7865 LJ            1 RES     
      33 LJ         -49.7235   -43.9766   -43.8430 LJ            1 RES     
      34 LJ         -49.3342   -43.0560   -43.8126 LJ            1 RES     
      35 LJ         -49.7450   -44.0005   -42.8435 LJ            1 RES     
      36 LJ         -49.3557   -43.0799   -42.8132 LJ            1 RES     
      37 LJ         -50.6443   -43.5868   -43.8535 LJ            1 RES     
      38 LJ         -50.2550   -42.6662   -43.8231 LJ            1 RES     
      39 LJ         -50.6658   -43.6107   -42.8540 LJ            1 RES     
      40 LJ         -50.2765   -42.6901   -42.8236 LJ            1 RES     
      41 LJ         -49.2017   -43.1403   -36.3920 LJ            1 RES     
      42 LJ         -49.4233   -43.8222   -37.0890 LJ            1 RES     
      43 LJ         -49.8365   -42.4968   -36.8198 LJ            1 RES     
      44 LJ         -50.0581   -43.1788   -37.5168 LJ            1 RES     
      45 LJ         -49.9419   -43.4879   -35.8165 LJ            1 RES     
      46 LJ         -50.1635   -44.1699   -36.5135 LJ            1 RES     
      47 LJ         -50.5767   -42.8444   -36.2443 LJ            1 RES     
      48 LJ         -50.7983   -43.5264   -36.9413 LJ            1 RES     
      49 LJ         -49.3071   -36.3406   -49.5956 LJ            1 RES     
      50 LJ         -49.9261   -37.0285   -49.2167 LJ            1 RES     
      51 LJ         -49.2887   -36.8355   -50.4643 LJ            1 RES     
      52 LJ         -49.9077   -37.5235   -50.0854 LJ            1 RES     
      53 LJ         -50.0923   -35.8098   -49.9146 LJ            1 RES     
      54 LJ         -50.7113   -36.4978   -49.5357 LJ            1 RES     
      55 LJ         -50.0739   -36.3048   -50.7833 LJ            1 RES     
      56 LJ         -50.6929   -36.9928   -50.4044 LJ            1 RES     
      57 LJ         -50.3503   -35.8759   -43.3779 LJ            1 RES     
      58 LJ         -50.7213   -36.6430   -42.8546 LJ            1 RES     
      59 LJ         -49.4349   -36.0832   -43.0329 LJ            1 RES     
      60 LJ         -49.8059   -36.8504   -42.5096 LJ            1 RES     
      61 LJ         -50.1941   -36.4830   -44.1571 LJ            1 RES     
      62 LJ         -50.5651   -37.2501   -43.6337 LJ            1 RES     
      63 LJ         -49.2787   -36.6903   -43.8121 LJ            1 RES     
      64 LJ         -49.6497   -37.4574   -43.2887 LJ            1 RES     
      65 LJ         -50.0778   -36.2262   -37.4083 LJ            1 RES     
      66 LJ         -49.6669   -35.8734   -36.5676 LJ            1 RES     
      67 LJ         -49.5736   -37.0824   -37.2954 LJ            1 RES     
      68 LJ         -49.1627   -36.7296   -36.4548 LJ            1 RES     
      69 LJ         -50.8373   -36.6037   -36.8786 LJ            1 RES     
      70 LJ         -50.4264   -36.2509   -36.0379 LJ            1 RES     
      71 LJ         -50.3331   -37.4599   -36.7657 LJ            1 RES     
      72 LJ         -49.9222   -37.1071   -35.9251 LJ            1 RES     
      73 LJ         -42.7772   -50.0556   -50.6615 LJ            1 RES     
      74 LJ         -43.7560   -50.2541   -50.7119 LJ            1 RES     
      75 LJ         -42.9725   -49.2252   -50.1396 LJ            1 RES     
      76 LJ         -43.9513   -49.4238   -50.1900 LJ            1 RES     
      77 LJ         -42.7154   -50.5762   -49.8100 LJ            1 RES     
      78 LJ         -43.6942   -50.7748   -49.8604 LJ            1 RES     
      79 LJ         -42.9107   -49.7459   -49.2881 LJ            1 RES     
      80 LJ         -43.8895   -49.9444   -49.3385 LJ            1 RES     
      81 LJ         -44.0085   -49.8404   -43.8516 LJ            1 RES     
      82 LJ         -43.0658   -49.5571   -44.0278 LJ            1 RES     
      83 LJ         -43.6860   -50.7492   -43.5870 LJ            1 RES     
      84 LJ         -42.7433   -50.4659   -43.7631 LJ            1 RES     
      85 LJ         -43.9234   -49.5341   -42.9035 LJ            1 RES     
      86 LJ         -42.9807   -49.2508   -43.0797 LJ            1 RES     
      87 LJ         -43.6009   -50.4429   -42.6389 LJ            1 RES     
      88 LJ         -42.6581   -50.1596   -42.8150 LJ            1 RES     
      89 LJ         -43.1307   -50.3220   -37.4447 LJ            1 RES     
      90 LJ         -42.4943   -50.2139   -36.6809 LJ            1 RES     
      91 LJ         -43.8134   -50.7039   -36.8217 LJ            1 RES     
      92 LJ         -43.1769   -50.5959   -36.0580 LJ            1 RES     
      93 LJ         -43.4897   -49.4041   -37.2754 LJ            1 RES     
      94 LJ         -42.8533   -49.2961   -36.5117 LJ            1 RES     
      95 LJ         -44.1724   -49.7861   -36.6524 LJ            1 RES     
      96 LJ         -43.5359   -49.6780   -35.8887 LJ            1 RES     
      97 LJ         -42.6505   -43.4986   -49.4936 LJ            1 RES     
      98 LJ         -43.5896   -43.3733   -49.1737 LJ            1 RES     
      99 LJ         -42.9801   -44.0900   -50.2296 LJ            1 RES     
     100 LJ         -43.9192   -43.9647   -49.9097 LJ            1 RES     
     101 LJ         -42.7474   -42.7020   -50.0903 LJ            1 RES     
     102 LJ         -43.6866   -42.5767   -49.7704 LJ            1 RES     
     103 LJ         -43.0771   -43.2934   -50.8263 LJ            1 RES     
     104 LJ         -44.0162   -43.1681   -50.5064 LJ            1 RES     
     105 LJ         -42.7929   -43.4039   -44.0063 LJ            1 RES     
     106 LJ         -43.3219   -44.1541   -43.6095 LJ            1 RES     
     107 LJ         -43.6017   -42.8167   -43.9745 LJ            1 RES     
     108 LJ         -44.1307   -43.5668   -43.5777 LJ            1 RES     
     109 LJ         -42.5360   -43.0998   -43.0890 LJ            1 RES     
     110 LJ         -43.0650   -43.8500   -42.6922 LJ            1 RES     
     111 LJ         -43.3448   -42.5126   -43.0571 LJ            1 RES     
     112 LJ         -43.8738   -43.2628   -42.6603 LJ            1 RES     
     113 LJ         -42.5000   -43.2224   -36.4586 LJ            1 RES     
     114 LJ         -42.8927   -44.0574   -36.8441 LJ            1 RES     
     115 LJ         -43.0060   -42.6763   -37.1262 LJ            1 RES     
     116 LJ         -43.3987   -43.5113   -37.5117 LJ            1 RES     
     117 LJ         -43.2680   -43.1554   -35.8216 LJ            1 RES     
     118 LJ         -43.6606   -43.9904   -36.2071 LJ            1 RES     
     119 LJ         -43.7740   -42.6092   -36.4892 LJ            1 RES     
     120 LJ         -44.1666   -43.4442   -36.8747 LJ            1 RES     
     121 LJ         -42.4767   -36.6876   -50.1254 LJ            1 RES     
     122 LJ         -42.9906   -35.9024   -49.7799 LJ            1 RES     
     123 LJ         -42.9851   -37.2908   -49.5109 LJ            1 RES     
     124 LJ         -43.4991   -36.5056   -49.1654 LJ            1 RES     
     125 LJ         -43.1676   -36.8277   -50.8346 LJ            1 RES     
     126 LJ         -43.6815   -36.0425   -50.4891 LJ            1 RES     
     127 LJ         -43.6761   -37.4309   -50.2201 LJ            1 RES     
     128 LJ         -44.1900   -36.6458   -49.8746 LJ            1 RES     
     129 LJ         -43.6975   -37.0968   -42.6758 LJ            1 RES     
     130 LJ         -42.7833   -36.6917   -42.6649 LJ            1 RES     
     131 LJ         -44.0615   -36.2642   -43.0931 LJ            1 RES     
     132 LJ         -43.1474   -35.8590   -43.0822 LJ            1 RES     
     133 LJ         -43.5193   -37.4743   -43.5845 LJ            1 RES     
     134 LJ         -42.6051   -37.0692   -43.5736 LJ            1 RES     
     135 LJ         -43.8834   -36.6417   -44.0018 LJ            1 RES     
     136 LJ         -42.9692   -36.2365   -43.9909 LJ            1 RES     
     137 LJ         -42.5318   -36.6326   -36.9927 LJ            1 RES     
     138 LJ         -43.3296   -37.0132   -37.4603 LJ            1 RES     
     139 LJ         -43.0744   -35.8414   -36.7108 LJ            1 RES     
     140 LJ         -43.8723   -36.2220   -37.1784 LJ            1 RES     
     141 LJ         -42.7944   -37.1113   -36.1549 LJ            1 RES     
     142 LJ         -43.5922   -37.4919   -36.6225 LJ            1 RES     
     143 LJ         -43.3371   -36.3201   -35.8730 LJ            1 RES     
     144 LJ         -44.1349   -36.7007   -36.3406 LJ            1 RES     
     145 LJ         -36.7195   -49.2594   -49.5543 LJ            1 RES     
     146 LJ         -36.6336   -50.1707   -49.1516 LJ            1 RES     
     147 LJ         -36.0052   -49.4848   -50.2168 LJ            1 RES     
     148 LJ         -35.9193   -50.3961   -49.8141 LJ            1 RES     
     149 LJ         -37.4140   -49.6039   -50.1859 LJ            1 RES     
     150 LJ         -37.3281   -50.5152   -49.7832 LJ            1 RES     
     151 LJ         -36.6997   -49.8293   -50.8484 LJ            1 RES     
     152 LJ         -36.6138   -50.7406   -50.4457 LJ            1 RES     
     153 LJ         -37.3459   -50.0652   -43.8666 LJ            1 RES     
     154 LJ         -37.3360   -49.5607   -43.0033 LJ            1 RES     
     155 LJ         -36.4588   -49.6712   -44.1071 LJ            1 RES     
     156 LJ         -36.4490   -49.1666   -43.2438 LJ            1 RES     
     157 LJ         -36.8844   -50.8334   -43.4229 LJ            1 RES     
     158 LJ         -36.8745   -50.3288   -42.5596 LJ            1 RES     
     159 LJ         -35.9973   -50.4393   -43.6634 LJ            1 RES     
     160 LJ         -35.9874   -49.9348   -42.8001 LJ            1 RES     
     161 LJ         -35.9355   -49.6379   -36.9570 LJ            1 RES     
     162 LJ         -36.7410   -49.1376   -36.6392 LJ            1 RES     
     163 LJ         -36.0036   -50.2486   -36.1681 LJ            1 RES     
     164 LJ         -36.8091   -49.7483   -35.8503 LJ            1 RES     
     165 LJ         -36.5242   -50.2517   -37.4830 LJ            1 RES     
     166 LJ         -37.3297   -49.7514   -37.1653 LJ            1 RES     
     167 LJ         -36.5924   -50.8624   -36.6941 LJ            1 RES     
     168 LJ         -37.3978   -50.3621   -36.3764 LJ            1 RES     
     169 LJ         -36.2299   -43.5253   -49.2772 LJ            1 RES     
     170 LJ         -36.0456   -42.7434   -49.8728 LJ            1 RES     
     171 LJ         -37.2097   -43.3309   -49.3253 LJ            1 RES     
     172 LJ         -37.0253   -42.5490   -49.9209 LJ            1 RES     
     173 LJ         -36.3080   -44.1176   -50.0791 LJ            1 RES     
     174 LJ         -36.1237   -43.3357   -50.6747 LJ            1 RES     
     175 LJ         -37.2878   -43.9233   -50.1272 LJ            1 RES     
     176 LJ         -37.1034   -43.1414   -50.7228 LJ            1 RES     
     177 LJ         -36.8761   -42.7353   -43.9237 LJ            1 RES     
     178 LJ         -35.9549   -43.0894   -43.7622 LJ            1 RES     
     179 LJ         -37.2398   -43.6662   -43.8908 LJ            1 RES     
     180 LJ         -36.3186   -44.0204   -43.7294 LJ            1 RES     
     181 LJ         -37.0147   -42.6463   -42.9373 LJ            1 RES     
     182 LJ         -36.0936   -43.0004   -42.7759 LJ            1 RES     
     183 LJ         -37.3784   -43.5772   -42.9044 LJ            1 RES     
     184 LJ         -36.4572   -43.9314   -42.7430 LJ            1 RES     
     185 LJ         -37.2024   -43.2731   -35.9889 LJ            1 RES     
     186 LJ         -36.9987   -42.5343   -36.6313 LJ            1 RES     
     187 LJ         -37.3080   -43.9088   -36.7536 LJ            1 RES     
     188 LJ         -37.1042   -43.1700   -37.3960 LJ            1 RES     
     189 LJ         -36.2291   -43.4967   -35.9374 LJ            1 RES     
     190 LJ         -36.0254   -42.7579   -36.5797 LJ            1 RES     
     191 LJ         -36.3347   -44.1324   -36.7021 LJ            1 RES     
     192 LJ         -36.1309   -43.3936   -37.3444 LJ            1 RES     
     193 LJ         -37.3118   -36.5785   -49.4290 LJ            1 RES     
     194 LJ         -36.7085   -37.3728   -49.5004 LJ            1 RES     
     195 LJ         -36.5211   -35.9711   -49.5050 LJ            1 RES     
     196 LJ         -35.9178   -36.7654   -49.5764 LJ            1 RES     
     197 LJ         -37.4156   -36.5679   -50.4236 LJ            1 RES     
     198 LJ         -36.8122   -37.3622   -50.4950 LJ            1 RES     
     199 LJ         -36.6248   -35.9605   -50.4996 LJ            1 RES     
     200 LJ         -36.0215   -36.7548   -50.5710 LJ            1 RES     
     201 LJ         -36.3075   -37.0414   -44.0266 LJ            1 RES     
     202 LJ         -35.9797   -36.2047   -43.5877 LJ            1 RES     
     203 LJ         -36.4150   -37.4699   -43.1295 LJ            1 RES     
     204 LJ         -36.0872   -36.6332   -42.6906 LJ            1 RES     
     205 LJ         -37.2461   -36.7001   -43.9761 LJ            1 RES     
     206 LJ         -36.9183   -35.8635   -43.5372 LJ            1 RES     
     207 LJ         -37.3536   -37.1286   -43.0790 LJ            1 RES     
     208 LJ         -37.0258   -36.2920   -42.6401 LJ            1 RES     
     209 LJ         -36.5172   -37.2601   -36.0539 LJ            1 RES     
     210 LJ         -37.2643   -36.5954   -36.0439 LJ            1 RES     
     211 LJ         -36.7063   -37.4583   -37.0157 LJ            1 RES     
     212 LJ         -37.4534   -36.7936   -37.0057 LJ            1 RES     
     213 LJ         -35.8799   -36.5398   -36.3276 LJ            1 RES     
     214 LJ         -36.6270   -35.8751   -36.3177 LJ            1 RES     
     215 LJ         -36.0691   -36.7379   -37.2894 LJ            1 RES     
     216 LJ         -36.8161   -36.0732   -37.2794 LJ            1 RES     
@<TRIPOS>BOND
@<TRIPOS>SUBSTRUCTURE
       1 RES             1 RESIDUE    0 **** ROOT      0
